FoamFile { version 2.0; format ascii; class dictionary; object topoSetDict; }
actions
(
    { name designSet; type cellSet; action new; source boxToCell; box (0.02 0 -1) (0.08 0.012 1); }
    { name designSpace; type cellZoneSet; action new; source setToCellZone; set designSet; }
    { name freeSet; type cellSet; action new; source cellToCell; set designSet; }
    { name freeSet; type cellSet; action invert; }
    { name freeZone; type cellZoneSet; action new; source setToCellZone; set freeSet; }
    { name objSet; type cellSet; action new; source boxToCell; box (0.085 0 -1) (0.098 0.02 1); }
    { name objZone; type cellZoneSet; action new; source setToCellZone; set objSet; }
);
